57

Si        12.72077        9.76238        5.12316
O         14.32152        9.31254        4.41648
O         12.15110        9.96484        3.57157
O         11.04412       10.07225        5.72031
O         12.67647        8.27840        5.86501
O         13.39400       11.03456        5.87606
H         12.90121       11.52936        6.31172
C         14.40442        9.43535        3.13275
O         15.44951        9.28658        2.50603
O          9.38031        9.09006        6.83854
C         13.05843        9.82407        2.49770
C         10.51254        9.08565        6.38350
C         11.47136        7.89427        6.51671
C         13.23370       11.16400        1.76863
C         14.03403       11.25475        0.64395
H         14.45300       10.47472        0.30001
C         14.23242       12.47878        0.01306
H         14.78317       12.53417       -0.75936
C         13.62387       13.61229        0.51346
H         13.76904       14.45294        0.09474
C         12.81058       13.52679        1.61288
H         12.38079       14.30698        1.94218
C         12.60928       12.30343        2.25238
H         12.04705       12.25134        3.01590
C         12.51088        8.74966        1.54657
C         13.29654        7.82509        0.89860
H         14.23720        7.82892        1.02492
C         12.70924        6.87900        0.05455
H         13.25790        6.24285       -0.38901
C         11.36017        6.85744       -0.14111
H         10.96857        6.20019       -0.70481
C         10.58150        7.78312        0.47657
H          9.64174        7.78350        0.33590
C         11.15803        8.72719        1.31259
H         10.60387        9.37460        1.73404
C         10.83599        6.70655        5.78577
C          9.93069        5.86959        6.42713
H          9.67944        6.05063        7.32516
C          9.38712        4.77390        5.77199
H          8.77795        4.20211        6.22416
C          9.73367        4.51703        4.46888
H          9.37967        3.75654        4.02503
C         10.59399        5.36402        3.80526
H         10.80879        5.19763        2.89533
C         11.14716        6.45487        4.45294
H         11.74042        7.03204        3.98771
C         11.79058        7.58978        7.97829
C         12.41825        6.38843        8.30443
H         12.57730        5.74527        7.62373
C         12.81158        6.11619        9.59563
H         13.23899        5.29254        9.79846
C         12.58471        7.04689       10.60461
H         12.85978        6.86699       11.49517
C         11.95649        8.23119       10.29599
H         11.79046        8.86679       10.98272
C         11.56461        8.50895        8.99761
H         11.13710        9.33466        8.80081
