116
Ales1
P       0.781254   -0.766905    6.763560
Si      1.532181    0.410208    9.482946
Si      1.511796    1.349327    4.800765
O       1.422894   -0.585811    8.175144
O       0.725964    0.647383    6.135816
O      -0.711698   -1.111335    7.080292
O       1.449244   -1.791665    5.983085
C       2.021875   -0.676241   10.886792
C       2.774861   -1.823444   10.665770
H       3.026194   -2.053959    9.779493
C       3.164167   -2.634980   11.715879
H       3.680579   -3.413919   11.545655
C       2.805859   -2.317189   13.010056
H       3.076508   -2.874141   13.730650
C       2.054604   -1.189731   13.252777
H       1.794781   -0.972067   14.141072
C       1.677518   -0.375741   12.205022
H       1.171812    0.407754   12.385002
C       2.695940    1.799025    9.147038
C       4.041512    1.694108    9.507504
H       4.350777    0.904303    9.935924
C       4.933609    2.723891    9.249139
H       5.843331    2.642808    9.512045
C       4.496900    3.864785    8.610461
H       5.113153    4.560070    8.410296
C       3.166385    4.001716    8.261266
H       2.865832    4.797245    7.838396
C       2.272023    2.980344    8.527872
H       1.358973    3.082107    8.287506
C       3.314162    1.340097    5.167622
H       3.793542    1.828468    4.465867
H       3.637067    0.415933    5.200927
H       3.473830    1.773555    6.031865
C       1.158743    0.336251    3.298350
H       1.724740    0.641424    2.558412
H       0.216200    0.435795    3.051256
H       1.350524   -0.606374    3.486909
C       0.805314    3.039696    4.700515
H       1.207723    3.517902    3.946111
H       0.994955    3.522575    5.532293
H      -0.164283    2.981629    4.570155
P      -1.427436    0.766905   10.057032
Si     -2.178363   -0.410208    7.337647
Si     -2.157978   -1.349327   12.019827
O      -2.069076    0.585811    8.645448
O      -1.372146   -0.647383   10.684777
O       0.065516    1.111335    9.740301
O      -2.095426    1.791665   10.837508
C      -2.668057    0.676241    5.933800
C      -3.421043    1.823444    6.154823
H      -3.672376    2.053959    7.041100
C      -3.810349    2.634980    5.104713
H      -4.326761    3.413919    5.274938
C      -3.452041    2.317189    3.810537
H      -3.722690    2.874141    3.089943
C      -2.700786    1.189731    3.567816
H      -2.440963    0.972067    2.679520
C      -2.323700    0.375741    4.615571
H      -1.817994   -0.407754    4.435590
C      -3.342122   -1.799025    7.673554
C      -4.687694   -1.694107    7.313089
H      -4.996959   -0.904303    6.884669
C      -5.579791   -2.723891    7.571453
H      -6.489513   -2.642808    7.308548
C      -5.143082   -3.864785    8.210131
H      -5.759335   -4.560070    8.410296
C      -3.812567   -4.001716    8.559327
H      -3.512014   -4.797245    8.982196
C      -2.918205   -2.980344    8.292720
H      -2.005155   -3.082107    8.533087
C      -3.960344   -1.340097   11.652970
H      -4.439724   -1.828468   12.354725
H      -4.283249   -0.415933   11.619665
H      -4.120012   -1.773555   10.788728
C      -1.804925   -0.336251   13.522243
H      -2.370922   -0.641424   14.262181
H      -0.862382   -0.435795   13.769337
H      -1.996706    0.606374   13.333684
C      -1.451496   -3.039696   12.120078
H      -1.853905   -3.517902   12.874482
H      -1.641137   -3.522575   11.288300
H      -0.481899   -2.981629   12.250438
C      -0.758542    5.280942    8.262275
C      -0.314629    5.984289    7.121839
H      -0.594186    5.722578    6.253896
C       0.526367    7.040477    7.288363
H       0.818019    7.494965    6.506205
C       0.976321    7.492629    8.474215
H       1.583637    8.221679    8.528040
C       0.527287    6.865225    9.587738
H       0.100345    7.558056   10.152910
H       1.325996    6.550938   10.080581
C      -0.376386    5.770481    9.530548
H       0.027990    5.020400   10.033484
H      -1.199172    6.034528   10.011617
C      -1.636899    4.131286    8.026787
H      -1.975572    3.799474    8.884637
H      -1.132343    3.420929    7.577677
H      -2.388715    4.404680    7.461615
C       0.112360    6.402558    8.558318
C      -0.331553    5.699211    9.698754
H      -0.051996    5.960922   10.566696
C      -1.172549    4.643023    9.532230
H      -1.464201    4.188535   10.314387
C      -1.622503    4.190871    8.346378
H      -2.229819    3.461821    8.292552
C      -1.173469    4.818275    7.232855
H      -0.746527    4.125444    6.667683
H      -1.972178    5.132562    6.740011
C      -0.269796    5.913019    7.290045
H      -0.674172    6.663100    6.787109
H       0.552990    5.648972    6.808976
C       0.990717    7.552214    8.793806
H       1.329390    7.884026    7.935956
H       0.486161    8.262571    9.242916
H       1.742533    7.278821    9.358978
